*Blue LED SPICE Model Data
.model BLUE D (IS = 2.659E-20 N = 2.63815 RS = 8.14349)

*Developed by Wadhwani Electronics Lab
*Dept. of Electrical Engg.
*IIT Bombay
*January 09, 2015.
