*Green LED SPICE Model Data
.model GREEN D (IS = 9.847E-17 N = 2.396 RS = 12.9816)

*Developed by Wadhwani Electronics Lab
*Dept. of Electrical Engg.
*IIT Bombay
*January 09, 2015.
